LTspice 24.1.10 for Windows
Circuit: D:\Repository\mech_421\report\lab_3\LTSpice_circuit\4_instrumentation_amplifier.net
Start Time: Wed Nov 12 22:44:42 2025
solver = Normal
Maximum thread count: 12
tnom = 27
temp = 27
method = trap
WARNING: Node nc_03 is floating.

Direct Newton iteration failed to find .op point.  (Use ".option noopiter" to skip.)
Starting Gmin stepping
Gmin = 10
Gmin = 1.07374
Gmin = 0.115292
Gmin = 0.0123794
Gmin = 0.00132923
Gmin = 0.000142725
Gmin = 1.5325e-05
Gmin = 1.6455e-06
vernier = 0.5
Gmin = 3.78697e-07
vernier = 0.666667
vernier = 0.888888
Gmin = 7.94338e-08
vernier = 1
Gmin = 9.33136e-09
Gmin = 1.00195e-09
Gmin = 1.07583e-10
Gmin = 1.15517e-11
Gmin = 1.24035e-12
Gmin = 1.33182e-13
Gmin = 0
Gmin stepping succeeded in finding the operating point.

Total elapsed time: 0.468 seconds.

Files loaded:
D:\Repository\mech_421\report\lab_3\LTSpice_circuit\4_instrumentation_amplifier.net
C:\Users\gyang\AppData\Local\LTspice\lib\sub\LTC.lib
C:\Users\gyang\AppData\Local\LTspice\lib\sub\UniversalOpAmp1.lib
C:\Users\gyang\AppData\Local\LTspice\lib\sub\UniversalOpAmp2.lib

