LTspice 24.1.10 for Windows
Circuit: D:\Repository\mech_421\report\lab_3\LTSpice_circuit\Draft1.net
Start Time: Wed Nov 12 14:02:40 2025
solver = Normal
Maximum thread count: 12
tnom = 27
temp = -40
method = trap
Direct Newton iteration for .op point succeeded.
Total elapsed time: 0.490 seconds.

Files loaded:
D:\Repository\mech_421\report\lab_3\LTSpice_circuit\Draft1.net

